/*--------------------------------*- C++ -*----------------------------------*\
  =========                 |
  \\      /  F ield         | OpenFOAM: The Open Source CFD Toolbox
   \\    /   O peration     | Website:  https://openfoam.org
    \\  /    A nd           | Version:  10
     \\/     M anipulation  |
\*---------------------------------------------------------------------------*/
FoamFile
{
    format      binary;
    class       polyBoundaryMesh;
    location    "constant/polyMesh";
    object      boundary;
}
// * * * * * * * * * * * * * * * * * * * * * * * * * * * * * * * * * * * * * //

5
(
    frontAndBack
    {
        type            patch;
        nFaces          200;
        startFace       1275;
    }
    inlet
    {
        type            patch;
        nFaces          25;
        startFace       1475;
    }
    outlet
    {
        type            patch;
        nFaces          25;
        startFace       1500;
    }
    lowerWall
    {
        type            wall;
        inGroups        List<word> 1(wall);
        nFaces          100;
        startFace       1525;
    }
    upperWall
    {
        type            patch;
        nFaces          100;
        startFace       1625;
    }
)

// ************************************************************************* //
