/*--------------------------------*- C++ -*----------------------------------*\
  =========                 |
  \\      /  F ield         | OpenFOAM: The Open Source CFD Toolbox
   \\    /   O peration     | Website:  https://openfoam.org
    \\  /    A nd           | Version:  10
     \\/     M anipulation  |
\*---------------------------------------------------------------------------*/
FoamFile
{
    format      binary;
    class       polyBoundaryMesh;
    location    "1/polyMesh";
    object      boundary;
}
// * * * * * * * * * * * * * * * * * * * * * * * * * * * * * * * * * * * * * //

8
(
    frontAndBack
    {
        type            patch;
        nFaces          317;
        startFace       65379;
    }
    inlet
    {
        type            patch;
        nFaces          25;
        startFace       65696;
    }
    outlet
    {
        type            patch;
        nFaces          25;
        startFace       65721;
    }
    lowerWall
    {
        type            wall;
        inGroups        List<word> 1(wall);
        nFaces          322;
        startFace       65746;
    }
    upperWall
    {
        type            patch;
        nFaces          100;
        startFace       66068;
    }
    rotorBladeSurface
    {
        type            wall;
        inGroups        List<word> 1(wall);
        nFaces          3923;
        startFace       66168;
    }
    rotorBladeBottom
    {
        type            wall;
        inGroups        List<word> 1(wall);
        nFaces          175;
        startFace       70091;
    }
    rotorBladeTop
    {
        type            wall;
        inGroups        List<word> 1(wall);
        nFaces          77;
        startFace       70266;
    }
)

// ************************************************************************* //
