/*--------------------------------*- C++ -*----------------------------------*\
  =========                 |
  \\      /  F ield         | OpenFOAM: The Open Source CFD Toolbox
   \\    /   O peration     | Website:  https://openfoam.org
    \\  /    A nd           | Version:  10
     \\/     M anipulation  |
\*---------------------------------------------------------------------------*/
FoamFile
{
    format      binary;
    class       polyBoundaryMesh;
    location    "3/polyMesh";
    object      boundary;
}
// * * * * * * * * * * * * * * * * * * * * * * * * * * * * * * * * * * * * * //

8
(
    frontAndBack
    {
        type            patch;
        nFaces          317;
        startFace       74694;
    }
    inlet
    {
        type            patch;
        nFaces          25;
        startFace       75011;
    }
    outlet
    {
        type            patch;
        nFaces          25;
        startFace       75036;
    }
    lowerWall
    {
        type            wall;
        inGroups        List<word> 1(wall);
        nFaces          322;
        startFace       75061;
    }
    upperWall
    {
        type            patch;
        nFaces          100;
        startFace       75383;
    }
    rotorBladeSurface
    {
        type            wall;
        inGroups        List<word> 1(wall);
        nFaces          2319;
        startFace       75483;
    }
    rotorBladeBottom
    {
        type            wall;
        inGroups        List<word> 1(wall);
        nFaces          177;
        startFace       77802;
    }
    rotorBladeTop
    {
        type            wall;
        inGroups        List<word> 1(wall);
        nFaces          57;
        startFace       77979;
    }
)

// ************************************************************************* //
